<configuration>
    <input>
        <net-file value="multi_cross.net.xml"/>
        <route-files value="multi_cross.rou.xml"/>
    </input>

    <time>
        <begin value="0"/>
        <end value="1000"/>
    </time>

    <output>
    </output>
</configuration>