<configuration>
    <input>
        <net-file value="simple_cross.net.xml"/>
        <route-files value="simple_cross.rou.xml"/>
    </input>

    <time>
        <begin value="0"/>
        <end value="1000"/>
    </time>

    <output>
        <summary value="summary.xml"/>
    </output>
</configuration>
