<?xml version="1.0" encoding="UTF-8"?>

<!-- generated on 2025-10-24 18:23:45 by Eclipse SUMO netedit Version 1.12.0
-->

<routes xmlns:xsi="http://www.w3.org/2001/XMLSchema-instance" xsi:noNamespaceSchemaLocation="http://sumo.dlr.de/xsd/routes_file.xsd">
    <flow id="f_0" begin="0.00" color="blue" from="-E3" to="E1" end="3600.00" probability="0.015"/>
    <flow id="f_1" begin="0.00" color="blue" from="-E3" to="E2" end="3600.00" probability="0.07"/>
    <flow id="f_10" begin="0.00" color="yellow" from="-E1" to="-E0" end="3600.00" probability="0.015"/>
    <flow id="f_11" begin="0.00" color="yellow" from="-E1" to="E3" end="3600.00" probability="0.015"/>
    <flow id="f_2" begin="0.00" color="blue" from="-E3" to="-E0" end="3600.00" probability="0.015"/>
    <flow id="f_3" begin="0.00" color="red" from="E0" to="E3" end="3600.00" probability="0.07"/>
    <flow id="f_4" begin="0.00" color="red" from="E0" to="E1" end="3600.00" probability="0.015"/>
    <flow id="f_5" begin="0.00" color="red" from="E0" to="E2" end="3600.00" probability="0.015"/>
    <flow id="f_6" begin="0.00" color="green" from="-E2" to="-E0" end="3600.00" probability="0.015"/>
    <flow id="f_7" begin="0.00" color="green" from="-E2" to="E3" end="3600.00" probability="0.07"/>
    <flow id="f_8" begin="0.00" color="green" from="-E2" to="E1" end="3600.00" probability="0.015"/>
    <flow id="f_9" begin="0.00" color="yellow" from="-E1" to="E2" end="3600.00" probability="0.07"/>
</routes>
