<?xml version="1.0" encoding="UTF-8"?>

<!-- generated on 2025-11-06 22:50:21 by Eclipse SUMO netedit Version 1.12.0
<configuration xmlns:xsi="http://www.w3.org/2001/XMLSchema-instance" xsi:noNamespaceSchemaLocation="http://sumo.dlr.de/xsd/netconvertConfiguration.xsd">

    <input>
        <sumo-net-file value="/mnt/c/Users/dellp/OneDrive/Desktop/NUSStuff/Y4S1/CS3263/project/traffic-light-control/networks/simple_cross_lad.net.xml"/>
    </input>

    <output>
        <output-file value="/mnt/c/Users/dellp/OneDrive/Desktop/NUSStuff/Y4S1/CS3263/project/traffic-light-control/networks/simple_cross_lad.net.xml"/>
    </output>

    <processing>
        <geometry.min-radius.fix.railways value="false"/>
        <geometry.max-grade.fix value="false"/>
        <offset.disable-normalization value="true"/>
        <lefthand value="false"/>
    </processing>

    <junctions>
        <no-turnarounds value="true"/>
        <junctions.corner-detail value="5"/>
        <junctions.limit-turn-speed value="5.5"/>
        <rectangular-lane-cut value="false"/>
    </junctions>

    <pedestrian>
        <walkingareas value="false"/>
    </pedestrian>

    <report>
        <aggregate-warnings value="5"/>
    </report>

</configuration>
-->

<net version="1.9" junctionCornerDetail="5" limitTurnSpeed="5.50" xmlns:xsi="http://www.w3.org/2001/XMLSchema-instance" xsi:noNamespaceSchemaLocation="http://sumo.dlr.de/xsd/net_file.xsd">

    <location netOffset="0.00,0.00" convBoundary="-4.12,-22.48,180.97,132.97" origBoundary="-10000000000.00,-10000000000.00,10000000000.00,10000000000.00" projParameter="!"/>

    <edge id=":cluster_J1_J2_J4_J6_0" function="internal">
        <lane id=":cluster_J1_J2_J4_J6_0_0" index="0" speed="6.70" length="9.60" shape="98.05,61.73 95.61,62.12 93.85,63.30 92.80,65.27 92.44,68.02"/>
    </edge>
    <edge id=":cluster_J1_J2_J4_J6_1" function="internal">
        <lane id=":cluster_J1_J2_J4_J6_1_0" index="0" speed="13.89" length="21.23" shape="98.05,61.73 76.83,61.50"/>
        <lane id=":cluster_J1_J2_J4_J6_1_1" index="1" speed="13.89" length="21.23" shape="98.05,58.53 76.82,58.30"/>
    </edge>
    <edge id=":cluster_J1_J2_J4_J6_3" function="internal">
        <lane id=":cluster_J1_J2_J4_J6_3_0" index="0" speed="9.37" length="5.38" shape="98.05,58.53 92.73,57.78"/>
    </edge>
    <edge id=":cluster_J1_J2_J4_J6_16" function="internal">
        <lane id=":cluster_J1_J2_J4_J6_16_0" index="0" speed="9.37" length="14.52" shape="92.73,57.78 92.60,57.77 88.71,55.47 86.38,51.65 85.61,46.31"/>
    </edge>
    <edge id=":cluster_J1_J2_J4_J6_4" function="internal">
        <lane id=":cluster_J1_J2_J4_J6_4_0" index="0" speed="6.67" length="9.56" shape="92.01,46.32 92.38,48.86 93.51,50.68 95.40,51.77 98.05,52.13"/>
    </edge>
    <edge id=":cluster_J1_J2_J4_J6_5" function="internal">
        <lane id=":cluster_J1_J2_J4_J6_5_0" index="0" speed="13.89" length="21.70" shape="92.01,46.32 92.44,68.02"/>
        <lane id=":cluster_J1_J2_J4_J6_5_1" index="1" speed="13.89" length="21.70" shape="88.81,46.31 89.24,68.01"/>
    </edge>
    <edge id=":cluster_J1_J2_J4_J6_7" function="internal">
        <lane id=":cluster_J1_J2_J4_J6_7_0" index="0" speed="9.27" length="4.35" shape="88.81,46.31 88.19,50.62"/>
    </edge>
    <edge id=":cluster_J1_J2_J4_J6_17" function="internal">
        <lane id=":cluster_J1_J2_J4_J6_17_0" index="0" speed="9.27" length="14.97" shape="88.19,50.62 88.05,51.55 85.80,55.29 82.05,57.54 76.82,58.30"/>
    </edge>
    <edge id=":cluster_J1_J2_J4_J6_8" function="internal">
        <lane id=":cluster_J1_J2_J4_J6_8_0" index="0" speed="6.52" length="9.03" shape="76.80,51.90 79.25,51.55 81.00,50.49 82.06,48.74 82.41,46.30"/>
    </edge>
    <edge id=":cluster_J1_J2_J4_J6_9" function="internal">
        <lane id=":cluster_J1_J2_J4_J6_9_0" index="0" speed="13.89" length="21.25" shape="76.80,51.90 98.05,52.13"/>
        <lane id=":cluster_J1_J2_J4_J6_9_1" index="1" speed="13.89" length="21.25" shape="76.81,55.10 98.05,55.33"/>
    </edge>
    <edge id=":cluster_J1_J2_J4_J6_11" function="internal">
        <lane id=":cluster_J1_J2_J4_J6_11_0" index="0" speed="9.49" length="5.29" shape="76.81,55.10 82.04,55.87"/>
    </edge>
    <edge id=":cluster_J1_J2_J4_J6_18" function="internal">
        <lane id=":cluster_J1_J2_J4_J6_18_0" index="0" speed="9.49" length="15.18" shape="82.04,55.87 82.26,55.90 86.15,58.32 88.48,62.35 89.24,68.01"/>
    </edge>
    <edge id=":cluster_J1_J2_J4_J6_12" function="internal">
        <lane id=":cluster_J1_J2_J4_J6_12_0" index="0" speed="6.83" length="10.10" shape="82.84,68.00 82.47,65.15 81.35,63.12 79.46,61.90 76.83,61.50"/>
    </edge>
    <edge id=":cluster_J1_J2_J4_J6_13" function="internal">
        <lane id=":cluster_J1_J2_J4_J6_13_0" index="0" speed="13.89" length="21.70" shape="82.84,68.00 82.41,46.30"/>
        <lane id=":cluster_J1_J2_J4_J6_13_1" index="1" speed="13.89" length="21.70" shape="86.04,68.01 85.61,46.31"/>
    </edge>
    <edge id=":cluster_J1_J2_J4_J6_15" function="internal">
        <lane id=":cluster_J1_J2_J4_J6_15_0" index="0" speed="9.39" length="4.55" shape="86.04,68.01 86.66,63.50"/>
    </edge>
    <edge id=":cluster_J1_J2_J4_J6_19" function="internal">
        <lane id=":cluster_J1_J2_J4_J6_19_0" index="0" speed="9.39" length="15.35" shape="86.66,63.50 86.81,62.46 89.06,58.50 92.81,56.12 98.05,55.33"/>
    </edge>

    <edge id="-E0" from="cluster_J1_J2_J4_J6" to="J0" priority="-1" shape="81.70,56.69 -4.12,56.88">
        <lane id="-E0_0" index="0" speed="13.89" length="80.94" shape="76.83,61.50 -4.11,61.68"/>
        <lane id="-E0_1" index="1" speed="13.89" length="80.94" shape="76.82,58.30 -4.12,58.48"/>
    </edge>
    <edge id="-E1" from="J3" to="cluster_J1_J2_J4_J6" priority="-1" shape="180.97,56.93 93.03,56.93">
        <lane id="-E1_0" index="0" speed="13.89" length="82.92" shape="180.97,61.73 98.05,61.73"/>
        <lane id="-E1_1" index="1" speed="13.89" length="82.92" shape="180.97,58.53 98.05,58.53"/>
    </edge>
    <edge id="-E2" from="J5" to="cluster_J1_J2_J4_J6" priority="-1" shape="87.44,132.97 87.64,68.01">
        <lane id="-E2_0" index="0" speed="13.89" length="64.96" shape="82.64,132.96 82.84,68.00"/>
        <lane id="-E2_1" index="1" speed="13.89" length="64.96" shape="85.84,132.97 86.04,68.01"/>
    </edge>
    <edge id="-E3" from="J7" to="cluster_J1_J2_J4_J6" priority="-1" shape="87.41,-22.48 87.21,47.17">
        <lane id="-E3_0" index="0" speed="13.89" length="68.79" shape="92.21,-22.47 92.01,46.32"/>
        <lane id="-E3_1" index="1" speed="13.89" length="68.79" shape="89.01,-22.48 88.81,46.31"/>
    </edge>
    <edge id="E0" from="J0" to="cluster_J1_J2_J4_J6" priority="-1" shape="-4.12,56.88 81.70,56.69">
        <lane id="E0_0" index="0" speed="13.89" length="80.94" shape="-4.13,52.08 76.80,51.90"/>
        <lane id="E0_1" index="1" speed="13.89" length="80.94" shape="-4.12,55.28 76.81,55.10"/>
    </edge>
    <edge id="E1" from="cluster_J1_J2_J4_J6" to="J3" priority="-1" shape="93.03,56.93 180.97,56.93">
        <lane id="E1_0" index="0" speed="13.89" length="82.92" shape="98.05,52.13 180.97,52.13"/>
        <lane id="E1_1" index="1" speed="13.89" length="82.92" shape="98.05,55.33 180.97,55.33"/>
    </edge>
    <edge id="E2" from="cluster_J1_J2_J4_J6" to="J5" priority="-1" shape="87.64,68.01 87.44,132.97">
        <lane id="E2_0" index="0" speed="13.89" length="64.96" shape="92.44,68.02 92.24,132.98"/>
        <lane id="E2_1" index="1" speed="13.89" length="64.96" shape="89.24,68.01 89.04,132.97"/>
    </edge>
    <edge id="E3" from="cluster_J1_J2_J4_J6" to="J7" priority="-1" shape="87.21,47.17 87.41,-22.48">
        <lane id="E3_0" index="0" speed="13.89" length="68.79" shape="82.41,46.30 82.61,-22.49"/>
        <lane id="E3_1" index="1" speed="13.89" length="68.79" shape="85.61,46.31 85.81,-22.48"/>
    </edge>

    <tlLogic id="cluster_J1_J2_J4_J6" type="static" programID="0" offset="0">
        <phase duration="42" state="GGGgrrrrGGGgrrrr"/>
        <phase duration="3"  state="yyyyrrrryyyyrrrr"/>
        <phase duration="42" state="rrrrGGGgrrrrGGGg"/>
        <phase duration="3"  state="rrrryyyyrrrryyyy"/>
    </tlLogic>

    <junction id="J0" type="dead_end" x="-4.12" y="56.88" incLanes="-E0_0 -E0_1" intLanes="" shape="-4.12,56.88 -4.11,63.28 -4.12,56.88"/>
    <junction id="J3" type="dead_end" x="180.97" y="56.93" incLanes="E1_0 E1_1" intLanes="" shape="180.97,56.93 180.97,50.53 180.97,56.93"/>
    <junction id="J5" type="dead_end" x="87.44" y="132.97" incLanes="E2_0 E2_1" intLanes="" shape="87.44,132.97 93.84,132.99 87.44,132.97"/>
    <junction id="J7" type="dead_end" x="87.41" y="-22.48" incLanes="E3_0 E3_1" intLanes="" shape="87.41,-22.48 81.01,-22.50 87.41,-22.48"/>
    <junction id="cluster_J1_J2_J4_J6" type="traffic_light" x="87.40" y="57.20" incLanes="-E1_0 -E1_1 -E3_0 -E3_1 E0_0 E0_1 -E2_0 -E2_1" intLanes=":cluster_J1_J2_J4_J6_0_0 :cluster_J1_J2_J4_J6_1_0 :cluster_J1_J2_J4_J6_1_1 :cluster_J1_J2_J4_J6_16_0 :cluster_J1_J2_J4_J6_4_0 :cluster_J1_J2_J4_J6_5_0 :cluster_J1_J2_J4_J6_5_1 :cluster_J1_J2_J4_J6_17_0 :cluster_J1_J2_J4_J6_8_0 :cluster_J1_J2_J4_J6_9_0 :cluster_J1_J2_J4_J6_9_1 :cluster_J1_J2_J4_J6_18_0 :cluster_J1_J2_J4_J6_12_0 :cluster_J1_J2_J4_J6_13_0 :cluster_J1_J2_J4_J6_13_1 :cluster_J1_J2_J4_J6_19_0" shape="98.05,63.33 98.05,50.53 95.58,50.06 94.72,49.48 94.10,48.66 93.73,47.61 93.61,46.33 80.81,46.29 80.36,48.52 79.80,49.29 79.02,49.85 78.02,50.19 76.80,50.30 76.83,63.10 79.29,63.64 80.14,64.32 80.76,65.27 81.12,66.49 81.24,67.99 94.04,68.03 94.49,65.42 95.05,64.50 95.83,63.85 96.83,63.46">
        <request index="0"  response="0000000001100000" foes="0000000001100000" cont="0"/>
        <request index="1"  response="1111000011100000" foes="1111100011100000" cont="0"/>
        <request index="2"  response="1111000011100000" foes="1111100011100000" cont="0"/>
        <request index="3"  response="1110011011100000" foes="1110011011100000" cont="1"/>
        <request index="4"  response="0000000000000000" foes="0000011000000000" cont="0"/>
        <request index="5"  response="0000100000001000" foes="1000111000001111" cont="0"/>
        <request index="6"  response="0000100000001000" foes="1000111000001111" cont="0"/>
        <request index="7"  response="0110100000001000" foes="0110111000001110" cont="1"/>
        <request index="8"  response="0110000000000000" foes="0110000000000000" cont="0"/>
        <request index="9"  response="1110000011110000" foes="1110000011111000" cont="0"/>
        <request index="10" response="1110000011110000" foes="1110000011111000" cont="0"/>
        <request index="11" response="1110000011100110" foes="1110000011100110" cont="1"/>
        <request index="12" response="0000000000000000" foes="0000000000000110" cont="0"/>
        <request index="13" response="0000100000001000" foes="0000111110001110" cont="0"/>
        <request index="14" response="0000100000001000" foes="0000111110001110" cont="0"/>
        <request index="15" response="0000100001101000" foes="0000111001101110" cont="1"/>
    </junction>

    <junction id=":cluster_J1_J2_J4_J6_16_0" type="internal" x="92.73" y="57.78" incLanes=":cluster_J1_J2_J4_J6_3_0 E0_0 E0_1" intLanes=":cluster_J1_J2_J4_J6_5_0 :cluster_J1_J2_J4_J6_5_1 :cluster_J1_J2_J4_J6_7_0 :cluster_J1_J2_J4_J6_8_0 :cluster_J1_J2_J4_J6_9_0 :cluster_J1_J2_J4_J6_9_1 :cluster_J1_J2_J4_J6_13_0 :cluster_J1_J2_J4_J6_13_1 :cluster_J1_J2_J4_J6_15_0"/>
    <junction id=":cluster_J1_J2_J4_J6_17_0" type="internal" x="88.19" y="50.62" incLanes=":cluster_J1_J2_J4_J6_7_0 -E2_0 -E2_1" intLanes=":cluster_J1_J2_J4_J6_1_0 :cluster_J1_J2_J4_J6_1_1 :cluster_J1_J2_J4_J6_3_0 :cluster_J1_J2_J4_J6_9_0 :cluster_J1_J2_J4_J6_9_1 :cluster_J1_J2_J4_J6_11_0 :cluster_J1_J2_J4_J6_12_0 :cluster_J1_J2_J4_J6_13_0 :cluster_J1_J2_J4_J6_13_1"/>
    <junction id=":cluster_J1_J2_J4_J6_18_0" type="internal" x="82.04" y="55.87" incLanes=":cluster_J1_J2_J4_J6_11_0 -E1_0 -E1_1" intLanes=":cluster_J1_J2_J4_J6_0_0 :cluster_J1_J2_J4_J6_1_0 :cluster_J1_J2_J4_J6_1_1 :cluster_J1_J2_J4_J6_5_0 :cluster_J1_J2_J4_J6_5_1 :cluster_J1_J2_J4_J6_7_0 :cluster_J1_J2_J4_J6_13_0 :cluster_J1_J2_J4_J6_13_1 :cluster_J1_J2_J4_J6_15_0"/>
    <junction id=":cluster_J1_J2_J4_J6_19_0" type="internal" x="86.66" y="63.50" incLanes=":cluster_J1_J2_J4_J6_15_0 -E3_0 -E3_1" intLanes=":cluster_J1_J2_J4_J6_1_0 :cluster_J1_J2_J4_J6_1_1 :cluster_J1_J2_J4_J6_3_0 :cluster_J1_J2_J4_J6_4_0 :cluster_J1_J2_J4_J6_5_0 :cluster_J1_J2_J4_J6_5_1 :cluster_J1_J2_J4_J6_9_0 :cluster_J1_J2_J4_J6_9_1 :cluster_J1_J2_J4_J6_11_0"/>

    <connection from="-E1" to="E2" fromLane="0" toLane="0" via=":cluster_J1_J2_J4_J6_0_0" tl="cluster_J1_J2_J4_J6" linkIndex="4" dir="r" state="o"/>
    <connection from="-E1" to="-E0" fromLane="0" toLane="0" via=":cluster_J1_J2_J4_J6_1_0" tl="cluster_J1_J2_J4_J6" linkIndex="5" dir="s" state="o"/>
    <connection from="-E1" to="-E0" fromLane="1" toLane="1" via=":cluster_J1_J2_J4_J6_1_1" tl="cluster_J1_J2_J4_J6" linkIndex="6" dir="s" state="o"/>
    <connection from="-E1" to="E3" fromLane="1" toLane="1" via=":cluster_J1_J2_J4_J6_3_0" tl="cluster_J1_J2_J4_J6" linkIndex="7" dir="l" state="o"/>
    <connection from="-E2" to="-E0" fromLane="0" toLane="0" via=":cluster_J1_J2_J4_J6_12_0" tl="cluster_J1_J2_J4_J6" linkIndex="0" dir="r" state="O"/>
    <connection from="-E2" to="E3" fromLane="0" toLane="0" via=":cluster_J1_J2_J4_J6_13_0" tl="cluster_J1_J2_J4_J6" linkIndex="1" dir="s" state="O"/>
    <connection from="-E2" to="E3" fromLane="1" toLane="1" via=":cluster_J1_J2_J4_J6_13_1" tl="cluster_J1_J2_J4_J6" linkIndex="2" dir="s" state="O"/>
    <connection from="-E2" to="E1" fromLane="1" toLane="1" via=":cluster_J1_J2_J4_J6_15_0" tl="cluster_J1_J2_J4_J6" linkIndex="3" dir="l" state="o"/>
    <connection from="-E3" to="E1" fromLane="0" toLane="0" via=":cluster_J1_J2_J4_J6_4_0" tl="cluster_J1_J2_J4_J6" linkIndex="8" dir="r" state="O"/>
    <connection from="-E3" to="E2" fromLane="0" toLane="0" via=":cluster_J1_J2_J4_J6_5_0" tl="cluster_J1_J2_J4_J6" linkIndex="9" dir="s" state="O"/>
    <connection from="-E3" to="E2" fromLane="1" toLane="1" via=":cluster_J1_J2_J4_J6_5_1" tl="cluster_J1_J2_J4_J6" linkIndex="10" dir="s" state="O"/>
    <connection from="-E3" to="-E0" fromLane="1" toLane="1" via=":cluster_J1_J2_J4_J6_7_0" tl="cluster_J1_J2_J4_J6" linkIndex="11" dir="l" state="o"/>
    <connection from="E0" to="E3" fromLane="0" toLane="0" via=":cluster_J1_J2_J4_J6_8_0" tl="cluster_J1_J2_J4_J6" linkIndex="12" dir="r" state="o"/>
    <connection from="E0" to="E1" fromLane="0" toLane="0" via=":cluster_J1_J2_J4_J6_9_0" tl="cluster_J1_J2_J4_J6" linkIndex="13" dir="s" state="o"/>
    <connection from="E0" to="E1" fromLane="1" toLane="1" via=":cluster_J1_J2_J4_J6_9_1" tl="cluster_J1_J2_J4_J6" linkIndex="14" dir="s" state="o"/>
    <connection from="E0" to="E2" fromLane="1" toLane="1" via=":cluster_J1_J2_J4_J6_11_0" tl="cluster_J1_J2_J4_J6" linkIndex="15" dir="l" state="o"/>

    <connection from=":cluster_J1_J2_J4_J6_0" to="E2" fromLane="0" toLane="0" dir="r" state="M"/>
    <connection from=":cluster_J1_J2_J4_J6_1" to="-E0" fromLane="0" toLane="0" dir="s" state="M"/>
    <connection from=":cluster_J1_J2_J4_J6_1" to="-E0" fromLane="1" toLane="1" dir="s" state="M"/>
    <connection from=":cluster_J1_J2_J4_J6_3" to="E3" fromLane="0" toLane="1" via=":cluster_J1_J2_J4_J6_16_0" dir="l" state="m"/>
    <connection from=":cluster_J1_J2_J4_J6_16" to="E3" fromLane="0" toLane="1" dir="l" state="M"/>
    <connection from=":cluster_J1_J2_J4_J6_4" to="E1" fromLane="0" toLane="0" dir="r" state="M"/>
    <connection from=":cluster_J1_J2_J4_J6_5" to="E2" fromLane="0" toLane="0" dir="s" state="M"/>
    <connection from=":cluster_J1_J2_J4_J6_5" to="E2" fromLane="1" toLane="1" dir="s" state="M"/>
    <connection from=":cluster_J1_J2_J4_J6_7" to="-E0" fromLane="0" toLane="1" via=":cluster_J1_J2_J4_J6_17_0" dir="l" state="m"/>
    <connection from=":cluster_J1_J2_J4_J6_17" to="-E0" fromLane="0" toLane="1" dir="l" state="M"/>
    <connection from=":cluster_J1_J2_J4_J6_8" to="E3" fromLane="0" toLane="0" dir="r" state="M"/>
    <connection from=":cluster_J1_J2_J4_J6_9" to="E1" fromLane="0" toLane="0" dir="s" state="M"/>
    <connection from=":cluster_J1_J2_J4_J6_9" to="E1" fromLane="1" toLane="1" dir="s" state="M"/>
    <connection from=":cluster_J1_J2_J4_J6_11" to="E2" fromLane="0" toLane="1" via=":cluster_J1_J2_J4_J6_18_0" dir="l" state="m"/>
    <connection from=":cluster_J1_J2_J4_J6_18" to="E2" fromLane="0" toLane="1" dir="l" state="M"/>
    <connection from=":cluster_J1_J2_J4_J6_12" to="-E0" fromLane="0" toLane="0" dir="r" state="M"/>
    <connection from=":cluster_J1_J2_J4_J6_13" to="E3" fromLane="0" toLane="0" dir="s" state="M"/>
    <connection from=":cluster_J1_J2_J4_J6_13" to="E3" fromLane="1" toLane="1" dir="s" state="M"/>
    <connection from=":cluster_J1_J2_J4_J6_15" to="E1" fromLane="0" toLane="1" via=":cluster_J1_J2_J4_J6_19_0" dir="l" state="m"/>
    <connection from=":cluster_J1_J2_J4_J6_19" to="E1" fromLane="0" toLane="1" dir="l" state="M"/>

</net>
